<?xml version="1.0" encoding="UTF-8"?>

<!-- generated on 2022-06-08 15:25:41 by Eclipse SUMO duarouter Version 1.12.0
<configuration xmlns:xsi="http://www.w3.org/2001/XMLSchema-instance" xsi:noNamespaceSchemaLocation="http://sumo.dlr.de/xsd/duarouterConfiguration.xsd">

    <input>
        <net-file value="/home/wifi/map/2022-06-08-15-25-25/osm.net.xml"/>
        <route-files value="/home/wifi/map/2022-06-08-15-25-25/osm.rail_urban.trips.xml"/>
    </input>

    <output>
        <output-file value="/home/wifi/map/2022-06-08-15-25-25/osm.rail_urban.trips.xml.tmp"/>
        <write-trips value="true"/>
    </output>

    <time>
        <begin value="0"/>
        <end value="3600"/>
    </time>

    <report>
        <no-warnings value="true"/>
        <ignore-errors value="true"/>
        <no-step-log value="true"/>
    </report>

</configuration>
-->

<routes xmlns:xsi="http://www.w3.org/2001/XMLSchema-instance" xsi:noNamespaceSchemaLocation="http://sumo.dlr.de/xsd/routes_file.xsd">
    <vType id="urban_rail_urban" vClass="rail_urban"/>
    <trip id="3302" type="urban_rail_urban" depart="369.77" departLane="best" departSpeed="max" from="392591721" to="441142104#1"/>
    <trip id="3303" type="urban_rail_urban" depart="554.65" departLane="best" departSpeed="max" from="27992305" to="158520528#2"/>
    <trip id="3304" type="urban_rail_urban" depart="739.53" departLane="best" departSpeed="max" from="392591721" to="441142104#1"/>
    <trip id="3307" type="urban_rail_urban" depart="1294.18" departLane="best" departSpeed="max" from="27992305" to="158520528#2"/>
    <trip id="33010" type="urban_rail_urban" depart="1848.84" departLane="best" departSpeed="max" from="42300368" to="4471972"/>
    <trip id="33011" type="urban_rail_urban" depart="2033.72" departLane="best" departSpeed="max" from="392591721" to="441142104#1"/>
    <trip id="33016" type="urban_rail_urban" depart="2958.14" departLane="best" departSpeed="max" from="27992305" to="42300369"/>
    <trip id="33017" type="urban_rail_urban" depart="3143.02" departLane="best" departSpeed="max" from="27992305" to="42300369"/>
</routes>
