<?xml version="1.0" encoding="UTF-8"?>

<!-- generated on 2022-06-08 15:25:36 by Eclipse SUMO polyconvert Version 1.12.0
<configuration xmlns:xsi="http://www.w3.org/2001/XMLSchema-instance" xsi:noNamespaceSchemaLocation="http://sumo.dlr.de/xsd/polyconvertConfiguration.xsd">

    <input>
        <net-file value="osm.net.xml"/>
        <osm-files value="osm_bbox.osm.xml"/>
        <osm.keep-full-type value="true"/>
        <type-file value="/usr/share/sumo/data/typemap/osmPolyconvert.typ.xml"/>
    </input>

    <output>
        <output-file value="osm.poly.xml"/>
    </output>

    <processing>
        <poi-layer-offset value="5"/>
    </processing>

    <report>
        <verbose value="true"/>
    </report>

</configuration>
-->

<additional xmlns:xsi="http://www.w3.org/2001/XMLSchema-instance" xsi:noNamespaceSchemaLocation="http://sumo.dlr.de/xsd/additional_file.xsd">
    <location netOffset="-384060.71,-5819418.56" convBoundary="-1320.41,-1601.35,6182.81,3838.81" origBoundary="13.271418,52.498021,13.381325,52.548317" projParameter="+proj=utm +zone=33 +ellps=WGS84 +datum=WGS84 +units=m +no_defs"/>

    <poly id="1012856122" type="leisure.pitch" color="207,245,201" fill="1" layer="-2.00" shape="2333.472294,1797.131620 2342.580323,1797.142838 2342.728608,1809.090917 2333.452315,1809.139244 2333.464829,1802.951760 2333.472294,1797.131620"/>
    <poly id="1012856122#1" type="sport.table_tennis" color="79,230,125" fill="1" layer="-2.00" shape="2333.472294,1797.131620 2342.580323,1797.142838 2342.728608,1809.090917 2333.452315,1809.139244 2333.464829,1802.951760 2333.472294,1797.131620"/>
    <poly id="1013203091" type="landuse.commercial" color="209,209,204" fill="1" layer="-3.00" shape="2513.513262,1986.495822 2513.406310,1981.001052 2513.396627,1974.725065 2513.329746,1966.859095 2513.307502,1966.191928 2504.603418,1966.026380 2503.504085,1966.029597 2503.521133,1962.957865 2503.522471,1960.086801 2498.528760,1960.135747 2498.510520,1957.298521 2498.479967,1951.879876 2522.479987,1951.423949 2527.170539,1951.471075 2540.253014,1951.390577 2540.884076,1951.387088 2547.635838,1951.353104 2547.586764,1962.126174 2547.579601,1975.880586 2547.576708,1983.080489 2547.565769,1996.378739 2545.443881,1997.941301 2538.574036,1996.976502 2533.460844,1996.260347 2513.471095,1993.462948 2513.513262,1986.495822"/>
    <poly id="1013203107" type="building.yes" color="255,230,230" fill="1" layer="-1.00" shape="2522.539189,1966.868286 2522.479987,1951.423949 2527.170539,1951.471075 2540.253014,1951.390577 2540.884076,1951.387088 2540.679721,1966.882040 2522.539189,1966.868286"/>
    <poly id="104390325" type="leisure.pitch" color="207,245,201" fill="1" layer="-2.00" shape="2370.301749,1819.278796 2399.151111,1819.243944 2399.095372,1797.233974 2395.803783,1797.232415 2395.828546,1798.300133 2370.336932,1798.268236 2370.301749,1819.278796"/>
    <poly id="104390325#1" type="sport.soccer" color="79,230,125" fill="1" layer="-2.00" shape="2370.301749,1819.278796 2399.151111,1819.243944 2399.095372,1797.233974 2395.803783,1797.232415 2395.828546,1798.300133 2370.336932,1798.268236 2370.301749,1819.278796"/>
    <poly id="1049519233" type="landuse.grass" color="194,194,130" fill="1" layer="-3.00" shape="492.544065,2359.527696 496.936456,2355.863075 500.659427,2351.724604 503.347705,2348.600949 506.681767,2346.675040 510.572430,2346.193804 514.565987,2346.622658 520.642687,2348.482447 537.695937,2353.366270 555.481380,2358.221763 566.959721,2360.655359 574.383408,2362.082850 584.192857,2363.098024 596.356875,2364.680914 626.637222,2371.056144 657.891309,2377.864881 695.613867,2385.600951 712.243811,2388.948518 732.409052,2394.594364 755.304772,2402.078957 769.378752,2405.531375 800.024303,2411.876809 829.137246,2418.269603 866.017953,2426.594299 898.445406,2433.410345 914.644859,2436.356963 927.961296,2438.481121 942.215052,2442.664262 960.288053,2449.973769 968.455519,2454.188675 976.032565,2455.513009 978.943424,2455.500283 987.049942,2455.098460 1034.106725,2464.487423 1317.989783,2523.698879 1316.328472,2530.125339 1022.858874,2468.957931 891.397012,2441.588296 876.474873,2436.975886 798.135800,2420.734756 765.975441,2413.456825 747.042208,2409.406567 726.726120,2401.961448 645.428897,2381.185276 596.204733,2368.879831 566.566091,2362.957047 552.784458,2361.267696 537.036225,2361.939414 520.487483,2365.211803 499.223560,2361.050523 492.544065,2359.527696"/>
    <poly id="1049519234" type="landuse.grass" color="194,194,130" fill="1" layer="-3.00" shape="733.657949,2441.025168 699.090973,2433.848834 664.585217,2426.971760 650.693429,2424.917505 632.818192,2423.724971 620.625202,2422.921653 605.636461,2420.681933 584.861347,2417.955441 566.532013,2417.652977 547.832710,2418.928380 534.911685,2420.635156 521.198640,2423.862951 500.747907,2430.577017 485.907348,2436.635813 482.458545,2438.297368 482.102800,2438.750887 488.002865,2437.153925 494.311594,2436.771434 497.359953,2436.833077 515.932732,2429.907331 543.939256,2423.894322 568.830417,2422.172495 594.027311,2422.769385 613.160191,2424.343889 624.171824,2425.698045 647.683925,2427.369824 672.971886,2431.548253 711.172587,2438.282759 733.657949,2441.025168"/>
    <poly id="1049519235" type="landuse.grass" color="194,194,130" fill="1" layer="-3.00" shape="601.325502,2462.937144 625.140277,2464.501523 622.035432,2462.905440 622.295007,2460.673685 624.749515,2454.539860 627.217100,2448.672807 627.328427,2438.131778 627.696048,2433.861017 625.791687,2430.222446 623.750228,2427.677669 624.171824,2425.698045 613.160191,2424.343889 613.771008,2425.787292 613.903911,2429.411955 613.502190,2434.251059 612.335210,2442.324245 611.716445,2444.575592 609.385211,2449.604827 604.886861,2455.107997 602.559794,2462.329393 601.325502,2462.937144"/>
    <poly id="1049519236" type="landuse.grass" color="194,194,130" fill="1" layer="-3.00" shape="1011.013809,2497.412564 1010.252400,2497.931210 982.360079,2495.804172 968.797600,2494.175292 953.331640,2491.533988 940.756428,2489.180917 940.423403,2484.826496 940.858944,2482.857705 945.577790,2483.837401 1011.013809,2497.412564"/>
    <poly id="1049519237" type="natural.scrub" color="140,196,107" fill="1" layer="-4.00" shape="484.232269,2449.339230 483.661245,2447.282851 484.035608,2445.604789 486.029381,2444.111093 491.000094,2443.103594 495.422089,2442.999298 526.341061,2458.628632 537.755095,2463.812335 548.132236,2467.039688 557.472204,2468.010228 568.155789,2468.693168 571.471662,2474.635371 571.247247,2480.661020 570.623035,2482.968144 563.014677,2488.956404 556.818648,2493.253281 551.477807,2498.420262 545.701496,2494.038385 554.628835,2482.688592 537.347041,2469.530727 535.773567,2471.582031 532.866524,2472.908059 522.326282,2467.080584 514.301133,2473.234544 512.896476,2473.523617 497.387271,2462.160243 486.917994,2453.014960 484.232269,2449.339230"/>
    <poly id="1049519245" type="landuse.grass" color="194,194,130" fill="1" layer="-3.00" shape="1083.080544,2514.516411 1067.580020,2511.263514 1067.200003,2513.865295 1076.097609,2515.370222 1079.732026,2515.251549 1081.948200,2514.843443 1083.080544,2514.516411"/>
    <poly id="1049519248" type="natural.scrub" color="140,196,107" fill="1" layer="-4.00" shape="1076.097609,2515.370222 1115.774187,2522.885560 1212.319120,2543.000367 1355.815166,2573.034538 1481.825730,2598.852412 1507.670016,2604.847094 1507.953946,2603.059955 1133.510110,2525.106896 1083.080544,2514.516411 1081.948200,2514.843443 1079.732026,2515.251549 1076.097609,2515.370222"/>
    <poly id="1061367294" type="building.residential" color="255,230,230" fill="1" layer="-1.00" shape="2607.412230,1963.712018 2604.584092,1948.253895 2655.526084,1938.984746 2658.347024,1954.431931 2607.412230,1963.712018"/>
    <poly id="1061367295" type="building.residential" color="255,230,230" fill="1" layer="-1.00" shape="2589.875061,1973.343174 2573.917676,1976.461299 2574.453879,1928.108728 2589.608551,1925.487702 2589.875061,1973.343174"/>
    <poly id="1063582928" type="landuse.village_green" color="242,242,204" fill="1" layer="-3.00" shape="2791.677396,2155.413993 2795.242232,2154.330076 2795.847402,2152.913958 2795.459333,2151.097934 2791.079143,2151.844601 2791.677396,2155.413993"/>
    <poly id="1063582929" type="amenity.parking" color="184,184,179" fill="1" layer="-1.00" shape="2784.970886,2115.997795 2779.553270,2084.196755 2783.933776,2083.461201 2789.366986,2115.350908 2784.970886,2115.997795"/>
    <poly id="1063582930" type="amenity.parking" color="184,184,179" fill="1" layer="-1.00" shape="2790.002755,2119.075225 2795.459333,2151.097934 2791.079143,2151.844601 2785.676700,2120.109973 2790.002755,2119.075225"/>
    <poly id="1063582931" type="landuse.village_green" color="242,242,204" fill="1" layer="-3.00" shape="2789.366986,2115.350908 2790.002755,2119.075225 2785.676700,2120.109973 2784.970886,2115.997795 2789.366986,2115.350908"/>
    <poly id="1063582932" type="amenity.parking" color="184,184,179" fill="1" layer="-1.00" shape="2779.693221,2157.771950 2775.871196,2137.162195 2771.546543,2137.963236 2775.065756,2156.921913 2778.780796,2156.758136 2779.693221,2157.771950"/>
    <poly id="1063582933" type="amenity.parking" color="184,184,179" fill="1" layer="-1.00" shape="2775.570129,2159.658873 2776.639561,2165.409591 2780.964191,2164.608555 2779.941629,2159.123825 2775.570129,2159.658873"/>
    <poly id="1063582934" type="landuse.village_green" color="242,242,204" fill="1" layer="-3.00" shape="2788.268437,2175.278399 2807.484916,2177.838813 2803.967253,2182.137628 2790.349832,2180.772039 2788.268437,2175.278399"/>
    <poly id="1063582935" type="landuse.village_green" color="242,242,204" fill="1" layer="-3.00" shape="2791.746365,2170.435218 2803.286069,2169.400668 2803.060013,2167.547515 2792.982664,2168.726312 2792.718993,2167.007564 2791.215326,2167.131344 2791.746365,2170.435218"/>
    <poly id="1063582936" type="landuse.village_green" color="242,242,204" fill="1" layer="-3.00" shape="2790.910780,2163.644187 2792.998775,2163.551413 2792.668582,2159.541832 2790.417448,2159.916578 2790.910780,2163.644187"/>
    <poly id="1063582937" type="landuse.village_green" color="242,242,204" fill="1" layer="-3.00" shape="2786.664251,2171.053450 2789.800451,2170.802909 2788.492807,2160.617618 2785.091174,2162.009352 2786.664251,2171.053450"/>
    <poly id="1063582938" type="landuse.village_green" color="242,242,204" fill="1" layer="-3.00" shape="2771.059480,2049.083917 2772.796542,2059.348302 2774.120195,2059.362215 2774.504017,2058.351821 2774.846542,2055.261443 2776.080626,2051.694207 2774.992897,2049.849845 2772.924723,2049.040798 2771.059480,2049.083917"/>
    <poly id="1063582939" type="landuse.village_green" color="242,242,204" fill="1" layer="-3.00" shape="2767.618578,2028.231670 2770.688241,2046.822385 2771.856189,2045.971912 2772.567283,2045.321177 2772.937736,2043.732435 2772.368894,2042.610528 2771.471139,2041.351560 2771.243366,2039.131222 2771.673896,2038.086365 2771.717849,2036.171330 2769.614958,2033.860805 2769.182797,2032.780250 2769.259829,2030.241282 2768.692013,2029.163864 2767.618578,2028.231670"/>
    <poly id="1063582940" type="landuse.village_green" color="242,242,204" fill="1" layer="-3.00" shape="2764.743015,2011.873200 2766.446247,2022.728149 2767.217422,2022.621297 2768.195042,2021.463639 2768.050717,2019.330397 2767.257428,2018.480751 2766.500289,2013.323729 2764.743015,2011.873200"/>
    <poly id="1063582941" type="landuse.village_green" color="242,242,204" fill="1" layer="-3.00" shape="2764.487203,2010.788569 2762.029735,1996.957622 2769.293708,1995.598995 2770.325047,2001.461872 2768.364313,2001.484943 2766.791800,2002.155593 2765.804664,2002.901734 2765.749142,2004.316275 2767.237165,2005.862053 2767.040419,2009.093725 2766.200093,2010.025649 2764.487203,2010.788569"/>
    <poly id="1063582942" type="landuse.village_green" color="242,242,204" fill="1" layer="-3.00" shape="2775.933658,2075.867649 2778.508855,2075.418640 2777.843629,2071.594852 2781.209830,2071.016279 2780.396452,2066.361315 2774.455046,2067.388900 2775.933658,2075.867649"/>
    <poly id="1063582943" type="landuse.village_green" color="242,242,204" fill="1" layer="-3.00" shape="2770.607189,2080.597780 2756.221239,1995.812190 2757.897196,1995.506370 2759.788452,2000.403483 2773.777715,2080.068237 2770.607189,2080.597780"/>
    <poly id="1063582944" type="landuse.village_green" color="242,242,204" fill="1" layer="-3.00" shape="2775.751809,2109.100103 2772.669467,2088.784836 2772.413341,2087.099299 2771.559020,2086.251063 2771.712228,2085.246000 2773.297667,2084.842125 2775.010361,2086.126766 2778.896729,2108.637922 2775.751809,2109.100103"/>
    <poly id="1063582945" type="landuse.village_green" color="242,242,204" fill="1" layer="-3.00" shape="2777.500367,2116.927188 2778.105795,2121.687110 2783.937827,2155.270180 2787.121931,2155.330114 2780.217721,2116.463764 2777.500367,2116.927188"/>
    <poly id="1063582947" type="landuse.residential" color="235,235,227" fill="1" layer="-3.00" shape="2769.260486,1972.731697 2775.822426,1971.533975 2776.762689,1972.869857 2934.712036,1945.029024 2935.499914,1945.645133 2976.933217,2187.179075 2981.190285,2186.390903 2983.060469,2196.563250 2982.945465,2201.284176 2982.594611,2204.018631 2969.813330,2204.180046 2961.657110,2203.032922 2964.657517,2198.957594 2807.424388,2177.862468 2803.967253,2182.137628 2790.349832,2180.772039 2788.268437,2175.278399 2786.664251,2171.053450 2785.091174,2162.009352 2788.492807,2160.617618 2790.417448,2159.916578 2792.668582,2159.541832 2797.757591,2158.634119 2799.634183,2157.322153 2800.775888,2155.337235 2800.671858,2152.891476 2785.135347,2063.514284 2783.773056,2063.590285 2776.682000,2024.572466 2778.273887,2024.446644 2769.260486,1972.731697"/>
    <poly id="1063582948" type="amenity.parking" color="184,184,179" fill="1" layer="-1.00" shape="2753.626857,2007.467564 2750.075086,1987.107522 2745.620915,1987.889319 2749.172447,2008.238236 2753.626857,2007.467564"/>
    <poly id="1063582949" type="amenity.parking" color="184,184,179" fill="1" layer="-1.00" shape="2751.174476,2019.687185 2754.388798,2038.074243 2758.842924,2037.292453 2755.628619,2018.905392 2751.174476,2019.687185"/>
    <poly id="1063582950" type="landuse.residential" color="235,235,227" fill="1" layer="-3.00" shape="2569.161191,2013.127024 2570.532597,2011.392676 2572.424387,2010.736824 2580.515021,2009.325387 2583.097022,2008.876118 2583.569232,2011.391246 2737.158624,1984.090036 2736.611847,1980.107722 2745.762326,1978.449494 2747.733871,1978.893540 2748.708665,1979.961547 2749.296902,1981.628276 2750.075086,1987.107522 2745.620915,1987.889319 2749.172447,2008.238236 2753.626857,2007.467564 2755.628619,2018.905392 2751.174476,2019.687185 2754.388798,2038.074243 2758.842924,2037.292453 2759.080862,2038.778106 2758.326661,2039.619016 2754.992777,2041.009202 2771.179715,2135.011664 2775.505363,2135.134226 2775.871196,2137.162195 2771.546543,2137.963236 2775.065756,2156.921913 2778.780796,2156.758136 2779.693221,2157.771950 2779.941629,2159.123825 2775.570129,2159.658873 2776.639561,2165.409591 2780.964191,2164.608555 2783.345545,2181.022969 2768.604231,2182.999569 2770.989474,2177.858922 2674.098407,2191.127725 2671.652536,2193.643612 2643.894618,2197.635513 2644.505624,2199.112528 2644.685226,2199.542364 2644.627260,2200.556356 2642.188438,2203.962338 2652.842597,2210.704160 2655.560033,2206.434878 2655.986481,2205.801839 2657.300740,2205.704656 2657.587830,2206.087494 2657.637005,2207.332695 2652.786997,2214.166263 2650.257481,2213.946603 2645.315161,2210.633555 2640.109941,2207.983151 2634.771897,2205.458234 2628.833722,2203.392336 2623.265569,2201.774129 2619.127997,2200.979668 2610.306468,2199.826271 2607.402359,2199.548538 2599.749384,2199.625573 2590.705479,2200.591687 2582.172582,2201.646135 2577.442951,2202.245296 2574.044405,2202.301745 2571.706332,2201.265346 2570.204221,2199.697697 2568.949455,2197.968528 2568.500090,2196.732596 2568.211787,2195.125708 2568.281322,2015.573311 2568.659525,2014.028884 2569.161191,2013.127024"/>
    <poly id="1063582959" type="landuse.residential" color="235,235,227" fill="1" layer="-3.00" shape="2569.333191,1608.786226 2569.598439,1606.465455 2570.639733,1604.538452 2573.143907,1602.477424 2574.809433,1601.715539 2672.169131,1584.439405 2673.726284,1584.859630 2674.705284,1586.105576 2675.280580,1589.263751 2676.637857,1588.965280 2700.604234,1725.775096 2702.075894,1726.609043 2709.753234,1771.277371 2707.942825,1771.641954 2722.296346,1854.970405 2726.101528,1854.292623 2731.541677,1884.991419 2727.915129,1887.523445 2742.864203,1973.152802 2742.164674,1974.304035 2735.820823,1975.541272 2735.408867,1973.280683 2583.061763,2000.319480 2583.309542,2002.227764 2583.114300,2002.588382 2575.095860,2004.187319 2572.519267,2003.991041 2570.263266,2003.865237 2570.348695,2002.572408 2568.933500,2002.416004 2568.513913,2001.880448 2569.333191,1608.786226"/>
    <poly id="1063582960" type="landuse.residential" color="235,235,227" fill="1" layer="-3.00" shape="2716.402000,1777.344162 2782.209794,1765.473648 2899.951846,1744.281209 2900.968738,1745.114586 2933.343817,1932.207769 2933.012202,1933.717704 2931.402693,1934.845401 2774.977107,1962.562082 2775.441666,1965.044017 2774.843931,1966.782676 2748.499241,1971.197514 2747.647886,1970.772078 2747.010848,1969.929951 2746.676563,1966.332203 2747.395993,1965.748040 2750.908047,1965.310740 2746.111195,1938.358321 2741.780453,1938.903578 2741.054686,1934.224338 2745.423912,1933.288710 2740.040496,1904.157640 2736.169580,1904.925956 2735.540248,1904.417492 2735.133978,1901.522475 2735.461550,1901.014140 2739.541197,1900.174228 2726.031062,1823.658833 2722.496662,1824.308095 2721.547231,1823.751395 2721.272912,1820.986864 2721.696480,1820.520820 2725.441929,1819.900060 2719.159706,1782.432657 2715.032577,1782.984351 2714.523942,1782.706786 2714.059626,1779.356864 2714.408936,1778.614337 2716.402000,1777.344162"/>
    <poly id="1063582961" type="landuse.residential" color="235,235,227" fill="1" layer="-3.00" shape="2699.326994,1583.989254 2701.413179,1583.807467 2701.046002,1581.723894 2701.813283,1579.391522 2703.323105,1577.765297 2704.587058,1577.246432 2775.411113,1564.113733 2810.251640,1557.188189 2864.359067,1547.258457 2863.933534,1544.408390 2864.733928,1543.800121 2866.638628,1543.400037 2870.666691,1548.247845 2873.092439,1562.769501 2870.361736,1566.783000 2881.409361,1631.081387 2885.349375,1630.356111 2886.970887,1639.443626 2883.123172,1640.344817 2884.213447,1648.176007 2888.431561,1647.444311 2888.814321,1650.206344 2884.820057,1650.932871 2897.588578,1724.817268 2901.622198,1724.034201 2902.163590,1726.024741 2902.200441,1729.384545 2900.891469,1731.773902 2898.381839,1733.601198 2739.852613,1762.190807 2740.626684,1766.023201 2739.962678,1766.951051 2717.443200,1771.010500 2715.434986,1770.745358 2714.345796,1769.134730 2714.122936,1765.367488 2715.632186,1763.719022 2708.998624,1724.857625 2706.172867,1722.697377 2705.804927,1720.580436 2707.129500,1718.869471 2716.701595,1715.465485 2718.407125,1714.380010 2719.732733,1712.713537 2720.641064,1710.611594 2720.833688,1707.201968 2699.326994,1583.989254"/>
    <poly id="1063776925" type="landuse.residential" color="235,235,227" fill="1" layer="-3.00" shape="2877.924020,1541.281049 2888.206247,1539.218633 2888.945682,1539.791343 2889.518018,1542.827199 3004.190302,1522.476195 3007.053935,1522.454656 3009.350867,1523.169508 3011.102076,1524.353195 3012.085730,1525.510074 3012.885206,1526.626689 3013.278702,1527.797179 3014.909489,1537.296249 3011.066237,1542.514891 3010.970331,1544.241941 3039.155721,1706.661401 3037.923317,1708.548194 2989.747619,1717.237543 2990.118771,1719.499090 2987.402463,1720.018005 2987.161940,1719.300234 2969.175899,1723.075874 2968.799348,1720.580765 2909.707498,1731.481337 2895.751855,1649.089151 2893.294669,1649.368445 2889.796489,1629.841689 2892.287964,1629.283401 2880.232480,1560.423534 2878.141809,1560.705499 2876.106929,1547.532430 2877.924020,1541.281049"/>
    <poly id="1064521727" type="landuse.residential" color="235,235,227" fill="1" layer="-3.00" shape="2946.336686,1942.946839 2954.375675,1941.348043 2954.801135,1944.198119 2971.390398,1941.100050 2970.873067,1938.385629 2981.705580,1936.677905 2982.129595,1939.171920 3005.699553,1935.078305 3005.044434,1930.508685 3013.479174,1929.001010 3014.309614,1933.522075 3018.614646,1932.743965 3018.190906,1930.261069 3034.188230,1927.388302 3034.607858,1929.693246 3041.861761,1928.479925 3041.489617,1926.173886 3044.753175,1925.553353 3045.125318,1927.859393 3056.406171,1925.874425 3056.219479,1923.664260 3064.643101,1921.967755 3068.335011,1921.381874 3069.206553,1921.506444 3070.001200,1922.122418 3070.446983,1922.913355 3071.526640,1929.709919 3119.988976,2208.572950 3124.564820,2207.777556 3129.038302,2234.047789 3128.637567,2236.093446 3128.588690,2236.328260 3126.988726,2237.867411 3125.377228,2238.906070 3124.010253,2239.071110 3122.370303,2238.875218 3093.317652,2229.385029 3089.173899,2228.022790 3093.378617,2224.376028 3075.882558,2218.714640 3050.365213,2210.400652 3030.374024,2207.779268 3027.301721,2210.799053 3025.724515,2211.558753 3023.995610,2211.331561 3022.096723,2208.148245 2991.336868,2204.095108 2990.156606,2202.352989 2988.485585,2198.752691 2986.219790,2185.551527 2987.857052,2185.335700 2946.336686,1942.946839"/>
    <poly id="1064521730" type="landuse.residential" color="235,235,227" fill="1" layer="-3.00" shape="2914.334466,1741.701297 2916.517457,1741.305933 2970.763027,1731.563293 2969.976815,1727.197006 2991.138382,1723.392620 2991.956326,1727.958481 3038.841725,1719.532592 3040.725903,1719.422375 3041.869117,1720.731371 3042.190199,1722.882796 3050.619190,1783.213542 3052.037627,1794.987628 3056.328336,1794.465830 3056.849078,1797.035516 3052.446509,1797.415228 3054.677980,1811.485189 3058.900075,1810.931591 3059.346881,1814.415476 3054.759531,1815.022008 3068.266031,1909.265087 3066.883397,1910.521044 2945.283965,1932.032316 2944.081670,1931.103058 2912.045769,1745.749085 2912.014186,1744.381070 2912.828076,1743.182713 2914.334466,1741.701297"/>
    <poly id="106483930" type="building.school" color="255,230,230" fill="1" layer="-1.00" shape="2785.038177,1731.044992 2815.280701,1725.494303 2813.973622,1717.389934 2811.156094,1717.933542 2810.246839,1717.353639 2809.039193,1710.615718 2809.597259,1709.801607 2812.631853,1709.252983 2811.076974,1700.998548 2780.806912,1706.538765 2782.166157,1714.842226 2784.944527,1714.366275 2785.882204,1715.001156 2786.902624,1721.565351 2786.308848,1722.302395 2783.593073,1722.843667 2785.038177,1731.044992"/>
    <poly id="106483934" type="building.school" color="255,230,230" fill="1" layer="-1.00" shape="2784.095787,1750.173560 2778.921857,1719.824662 2777.382804,1711.670023 2773.492210,1688.691592 2812.503000,1681.647384 2814.247099,1691.922743 2822.782817,1743.237050 2803.358021,1746.712709 2790.671855,1748.986670 2784.095787,1750.173560"/>
    <poly id="1065244020" type="landuse.residential" color="235,235,227" fill="1" layer="-3.00" shape="3420.972528,2419.108005 3438.809107,2415.426398 3447.711115,2412.729139 3449.907948,2411.176377 3451.451665,2408.959819 3452.107582,2405.906812 3451.830782,2397.700735 3424.186329,2333.382178 3423.385025,2332.176521 3422.091034,2331.382796 3420.306281,2330.789527 3321.788716,2314.860904 3301.895522,2308.508307 3300.078880,2306.825274 3299.259242,2302.760168 3292.060870,2300.466536 3289.605661,2300.523038 3288.024352,2301.104701 3286.869309,2302.221824 3286.076802,2303.464140 3046.971639,2225.089971 2788.853208,2190.888614 2786.853397,2190.979352 2676.172271,2205.969036 2673.027987,2203.816184 2668.533935,2204.331910 2667.134758,2204.865047 2665.575618,2206.403409 2658.200812,2217.913528 2658.761655,2220.448867 2687.082597,2242.850820 2697.771272,2250.504434 2708.114641,2257.019872 2716.455162,2261.734404 2733.316898,2270.469395 2793.153240,2299.999564 2804.222520,2304.461990 2825.569255,2310.545314 2911.741169,2325.992374 3037.213361,2348.368409 3123.334287,2363.731294 3138.016975,2366.887100 3156.192555,2371.731817 3179.463279,2378.595797 3229.909436,2393.636294 3244.567526,2397.794498 3249.045204,2398.637288 3263.638120,2402.029218 3283.472377,2405.834698 3309.561447,2410.453336 3362.385522,2419.754062 3367.427998,2420.372537 3374.352718,2421.103522 3380.095678,2421.494468 3400.244111,2421.264867 3411.488460,2420.394314 3420.972528,2419.108005"/>
    <poly id="1065296348" type="amenity.parking" color="184,184,179" fill="1" layer="-1.00" shape="2674.098407,2191.127725 2770.989474,2177.858922 2768.604231,2182.999569 2671.825760,2195.264295 2644.505624,2199.112528 2643.894618,2197.635513 2671.652536,2193.643612 2674.098407,2191.127725"/>
    <poly id="1065296349" type="amenity.parking" color="184,184,179" fill="1" layer="-1.00" shape="2642.188438,2203.962338 2652.842597,2210.704160 2655.560033,2206.434878 2644.685226,2199.542364 2644.627260,2200.556356 2642.188438,2203.962338"/>
    <poly id="1065296350" type="amenity.parking" color="184,184,179" fill="1" layer="-1.00" shape="2803.967253,2182.137628 2961.657110,2203.032922 2964.657517,2198.957594 2807.424388,2177.862468 2803.967253,2182.137628"/>
    <poly id="1065303447" type="building.roof" color="255,230,230" fill="1" layer="-1.00" shape="2705.001531,2304.909001 2695.469466,2302.659093 2650.367574,2292.007167 2653.941324,2276.946133 2699.104642,2287.607803 2699.185094,2287.272101 2700.013656,2283.780990 2651.336265,2272.288139 2646.049836,2294.566393 2704.197784,2308.299385 2705.001531,2304.909001"/>
    <poly id="1065303448" type="landuse.commercial" color="209,209,204" fill="1" layer="-3.00" shape="2745.469362,2292.422146 2746.961955,2298.864138 2744.065052,2314.154260 2766.768714,2318.169523 2786.976424,2318.425676 2808.131183,2322.076325 2808.528078,2320.164261 2794.120999,2315.445137 2782.789216,2310.488042 2758.882158,2298.744299 2745.469362,2292.422146"/>
    <poly id="1065303449" type="landuse.commercial" color="209,209,204" fill="1" layer="-3.00" shape="2712.904050,2312.693864 2696.300883,2313.077945 2696.246057,2311.588059 2692.774455,2311.123101 2692.791933,2312.758516 2661.383795,2312.350199 2660.883311,2304.505394 2651.835654,2304.714782 2651.984579,2313.202021 2624.453842,2316.131638 2602.712335,2316.456941 2590.119856,2315.090445 2590.041498,2290.899915 2574.067374,2287.975944 2574.046505,2284.437712 2573.870172,2241.954962 2573.874964,2231.027123 2578.824695,2225.281709 2593.282764,2223.388985 2601.467143,2222.231344 2606.358244,2222.451941 2612.707915,2223.239690 2618.677073,2224.592657 2625.204788,2226.622639 2630.285685,2228.886424 2635.449848,2231.815968 2650.620411,2242.236776 2676.623002,2258.883493 2681.721339,2261.903631 2692.209382,2267.926055 2708.498077,2276.529554 2707.902491,2277.478085 2720.285323,2283.568017 2714.253033,2309.991935 2712.904050,2312.693864"/>
    <poly id="1065303450" type="landuse.residential" color="235,235,227" fill="1" layer="-3.00" shape="2741.735506,2288.246459 2694.718436,2264.329296 2671.880014,2250.691733 2653.256862,2238.280951 2644.522095,2232.663148 2637.913296,2228.008803 2632.383135,2225.098856 2627.783701,2223.113252 2622.673173,2221.328661 2617.194755,2219.775151 2610.412466,2218.474395 2604.060468,2218.465666 2596.104628,2218.649873 2573.850655,2221.479833 2572.210587,2222.452571 2570.108800,2225.171975 2569.707697,2228.363882 2566.933672,2228.428129 2566.482001,2283.934098 2574.046505,2284.437712 2573.870172,2241.954962 2573.874964,2231.027123 2578.824695,2225.281709 2593.282764,2223.388985 2601.467143,2222.231344 2606.358244,2222.451941 2612.707915,2223.239690 2618.677073,2224.592657 2625.204788,2226.622639 2630.285685,2228.886424 2635.449848,2231.815968 2650.620411,2242.236776 2676.623002,2258.883493 2681.721339,2261.903631 2692.209382,2267.926055 2708.498077,2276.529554 2707.902491,2277.478085 2720.285323,2283.568017 2737.481237,2291.204743 2745.469362,2292.422146 2754.594322,2296.729120 2758.882158,2298.744299 2762.187673,2298.189366 2741.735506,2288.246459"/>
    <poly id="1065318510" type="landuse.residential" color="235,235,227" fill="1" layer="-3.00" shape="2301.535045,2131.636458 2296.684078,1652.219141 2295.427393,1651.001969 2291.818368,1651.363943 2288.347938,1656.819348 2247.512323,1665.056312 2246.842210,1664.548855 2246.223047,1660.390214 2242.936718,1660.911651 2241.188692,1662.209715 2240.470946,1663.450468 2240.099269,1665.272972 2202.024958,1672.878665 2199.819373,1672.885391 2192.225704,1671.170038 2191.338651,1671.257415 2192.354064,1675.818583 2020.624887,1709.935038 2023.508768,1705.828447 2023.355931,1704.218433 2003.178646,1708.304574 2003.631967,1710.285949 2001.702838,1712.256000 1958.438362,1720.785623 1956.554240,1719.149148 1946.132390,1721.016493 1945.214231,1721.516378 1944.393267,1722.692813 1944.971390,1731.782119 1959.130369,1910.837063 1960.020800,1912.062677 1961.219979,1912.557777 1958.851495,1921.303950 1955.250496,1920.252727 1954.136547,1920.211895 1953.009300,1921.640279 1923.274472,2027.292779 1923.566246,2028.165102 1924.421553,2028.757226 2298.578398,2132.606467 2300.398200,2132.653246 2301.179887,2132.123209 2301.535045,2131.636458"/>
    <poly id="1065318511" type="landuse.residential" color="235,235,227" fill="1" layer="-3.00" shape="2311.090717,1970.859111 2307.908198,1651.279816 2308.125549,1650.117455 2309.483595,1648.683803 2310.826381,1647.762395 2314.202270,1647.005236 2315.295987,1652.020858 2419.510651,1631.308910 2418.580790,1626.623311 2424.103739,1625.382454 2430.372660,1630.556312 2430.243643,1635.822863 2426.095469,1636.642359 2425.576499,1986.286208 2424.588970,1986.720844 2319.418933,1972.958191 2319.082391,1975.124844 2314.813045,1974.511739 2312.725441,1973.747845 2311.657138,1972.748860 2311.090717,1970.859111"/>