<?xml version="1.0" encoding="UTF-8"?>

<!-- generated on 2022-06-08 16:51:54 by Eclipse SUMO netedit Version 1.12.0
<configuration xmlns:xsi="http://www.w3.org/2001/XMLSchema-instance" xsi:noNamespaceSchemaLocation="http://sumo.dlr.de/xsd/netconvertConfiguration.xsd">

    <input>
        <sumo-net-file value="/home/wifi/map/2022-06-08-15-25-25/osm.net.xml"/>
    </input>

    <output>
        <output-file value="/home/wifi/map/2022-06-08-15-25-25/osm2.net.xml"/>
        <output.street-names value="true"/>
    </output>

    <processing>
        <geometry.min-radius.fix.railways value="false"/>
        <geometry.max-grade.fix value="false"/>
        <offset.disable-normalization value="true"/>
        <lefthand value="true"/>
    </processing>

    <junctions>
        <no-turnarounds value="true"/>
        <junctions.corner-detail value="5"/>
        <junctions.limit-turn-speed value="5.5"/>
        <rectangular-lane-cut value="false"/>
    </junctions>

    <pedestrian>
        <walkingareas value="false"/>
    </pedestrian>

    <report>
        <aggregate-warnings value="5"/>
    </report>

</configuration>
-->

<net version="1.9" junctionCornerDetail="5" lefthand="true" limitTurnSpeed="5.50" xmlns:xsi="http://www.w3.org/2001/XMLSchema-instance" xsi:noNamespaceSchemaLocation="http://sumo.dlr.de/xsd/net_file.xsd">

    <location netOffset="-384060.71,-5819418.56" convBoundary="0.00,0.00,3886.29,2980.27" origBoundary="13.290713,52.512733,13.347900,52.539488" projParameter="+proj=utm +zone=33 +ellps=WGS84 +datum=WGS84 +units=m +no_defs"/>

    <type id="highway.bridleway" priority="1" numLanes="1" speed="2.78" allow="pedestrian" oneway="1" width="2.00"/>
    <type id="highway.bus_guideway" priority="1" numLanes="1" speed="27.78" allow="bus" oneway="1"/>
    <type id="highway.cycleway" priority="1" numLanes="1" speed="8.33" allow="bicycle" oneway="0" width="1.00"/>
    <type id="highway.footway" priority="1" numLanes="1" speed="2.78" allow="pedestrian" oneway="1" width="2.00"/>
    <type id="highway.ford" priority="1" numLanes="1" speed="2.78" allow="army" oneway="0"/>
    <type id="highway.living_street" priority="2" numLanes="1" speed="2.78" disallow="tram rail_urban rail rail_electric rail_fast ship" oneway="0"/>
    <type id="highway.motorway" priority="14" numLanes="2" speed="39.44" allow="private emergency authority army vip passenger hov taxi bus coach delivery truck trailer motorcycle evehicle custom1 custom2" oneway="1"/>
    <type id="highway.motorway_link" priority="9" numLanes="1" speed="22.22" allow="private emergency authority army vip passenger hov taxi bus coach delivery truck trailer motorcycle evehicle custom1 custom2" oneway="1"/>
    <type id="highway.path" priority="1" numLanes="1" speed="2.78" allow="pedestrian bicycle" oneway="0" width="2.00"/>
    <type id="highway.pedestrian" priority="1" numLanes="1" speed="2.78" allow="pedestrian" oneway="1" width="2.00"/>
    <type id="highway.primary" priority="12" numLanes="2" speed="27.78" disallow="tram rail_urban rail rail_electric rail_fast ship" oneway="0"/>
    <type id="highway.primary_link" priority="7" numLanes="1" speed="22.22" disallow="tram rail_urban rail rail_electric rail_fast ship" oneway="0"/>
    <type id="highway.raceway" priority="15" numLanes="2" speed="83.33" allow="vip" oneway="0"/>
    <type id="highway.residential" priority="3" numLanes="1" speed="13.89" disallow="tram rail_urban rail rail_electric rail_fast ship" oneway="0"/>
    <type id="highway.secondary" priority="11" numLanes="1" speed="27.78" disallow="tram rail_urban rail rail_electric rail_fast ship" oneway="0"/>
    <type id="highway.secondary_link" priority="6" numLanes="1" speed="22.22" disallow="tram rail_urban rail rail_electric rail_fast ship" oneway="0"/>
    <type id="highway.service" priority="1" numLanes="1" speed="5.56" allow="pedestrian delivery bicycle" oneway="0"/>
    <type id="highway.stairs" priority="1" numLanes="1" speed="1.39" allow="pedestrian" oneway="1" width="2.00"/>
    <type id="highway.step" priority="1" numLanes="1" speed="1.39" allow="pedestrian" oneway="1" width="2.00"/>
    <type id="highway.steps" priority="1" numLanes="1" speed="1.39" allow="pedestrian" oneway="1" width="2.00"/>
    <type id="highway.tertiary" priority="10" numLanes="1" speed="22.22" disallow="tram rail_urban rail rail_electric rail_fast ship" oneway="0"/>
    <type id="highway.tertiary_link" priority="5" numLanes="1" speed="22.22" disallow="tram rail_urban rail rail_electric rail_fast ship" oneway="0"/>
    <type id="highway.track" priority="1" numLanes="1" speed="5.56" allow="pedestrian motorcycle moped bicycle" oneway="0"/>
    <type id="highway.trunk" priority="13" numLanes="2" speed="27.78" disallow="pedestrian bicycle tram rail_urban rail rail_electric rail_fast ship" oneway="0"/>
    <type id="highway.trunk_link" priority="8" numLanes="1" speed="22.22" disallow="pedestrian bicycle tram rail_urban rail rail_electric rail_fast ship" oneway="0"/>
    <type id="highway.unclassified" priority="4" numLanes="1" speed="13.89" disallow="tram rail_urban rail rail_electric rail_fast ship" oneway="0"/>
    <type id="highway.unsurfaced" priority="1" numLanes="1" speed="8.33" disallow="tram rail_urban rail rail_electric rail_fast ship" oneway="0"/>
    <type id="railway.highspeed" priority="21" numLanes="1" speed="69.44" allow="rail_fast" oneway="1"/>
    <type id="railway.light_rail" priority="19" numLanes="1" speed="27.78" allow="rail_urban" oneway="1"/>
    <type id="railway.preserved" priority="16" numLanes="1" speed="27.78" allow="rail" oneway="1"/>
    <type id="railway.rail" priority="20" numLanes="1" speed="44.44" allow="rail" oneway="1"/>
    <type id="railway.subway" priority="18" numLanes="1" speed="27.78" allow="rail_urban" oneway="1"/>
    <type id="railway.tram" priority="17" numLanes="1" speed="13.89" allow="tram" oneway="1"/>

    <edge id=":1044632975_0" function="internal">
        <lane id=":1044632975_0_0" index="0" allow="rail rail_electric rail_fast" speed="44.44" length="0.28" shape="479.13,1930.64 479.41,1930.69"/>
    </edge>
    <edge id=":1068822450_0" function="internal">
        <lane id=":1068822450_0_0" index="0" disallow="tram rail_urban rail rail_electric rail_fast ship" speed="8.33" length="5.01" shape="1023.89,2215.30 1023.69,2220.30"/>
    </edge>
    <edge id=":1068822450_1" function="internal">
        <lane id=":1068822450_1_0" index="0" disallow="tram rail_urban rail rail_electric rail_fast ship" speed="8.33" length="5.01" shape="1026.89,2220.43 1027.09,2215.42"/>
    </edge>
    <edge id=":1068824506_0" function="internal">
        <lane id=":1068824506_0_0" index="0" allow="pedestrian delivery bicycle" speed="4.99" length="5.07" shape="1579.64,2108.66 1579.09,2109.95 1578.27,2110.73 1577.17,2111.01 1575.80,2110.79"/>
    </edge>
    <edge id=":1068824506_1" function="internal">
        <lane id=":1068824506_1_0" index="0" allow="pedestrian delivery bicycle" speed="5.56" length="10.42" shape="1579.64,2108.66 1579.31,2111.51 1579.99,2113.74 1581.69,2115.35 1584.39,2116.33"/>
    </edge>
    <edge id=":1068824506_2" function="internal">
        <lane id=":1068824506_2_0" index="0" allow="pedestrian delivery bicycle" speed="3.65" length="4.67" shape="1579.64,2108.66 1580.11,2110.02 1580.78,2110.61 1581.65,2110.43 1582.73,2109.47"/>
    </edge>
    <edge id=":1068824506_3" function="internal">
        <lane id=":1068824506_3_0" index="0" allow="pedestrian delivery bicycle" speed="4.99" length="5.06" shape="1585.04,2113.20 1583.73,2112.72 1582.91,2111.94 1582.57,2110.86 1582.73,2109.47"/>
    </edge>
    <edge id=":1068824506_4" function="internal">
        <lane id=":1068824506_4_0" index="0" allow="pedestrian delivery bicycle" speed="5.56" length="9.56" shape="1585.04,2113.20 1582.26,2112.61 1580.37,2112.16 1578.51,2111.63 1575.80,2110.79"/>
    </edge>
    <edge id=":1068824506_5" function="internal">
        <lane id=":1068824506_5_0" index="0" allow="pedestrian delivery bicycle" speed="3.65" length="4.67" shape="1585.04,2113.20 1583.70,2113.74 1583.15,2114.44 1583.38,2115.30 1584.39,2116.33"/>
    </edge>
    <edge id=":1068824506_6" function="internal">
        <lane id=":1068824506_6_0" index="0" allow="pedestrian delivery bicycle" speed="5.56" length="9.88" shape="1574.84,2113.84 1577.64,2114.71 1579.57,2115.26 1581.52,2115.72 1584.39,2116.33"/>
    </edge>
    <edge id=":1068824506_7" function="internal">
        <lane id=":1068824506_7_0" index="0" allow="pedestrian delivery bicycle" speed="5.56" length="10.41" shape="1574.84,2113.84 1577.67,2114.30 1579.93,2113.73 1581.62,2112.12 1582.73,2109.47"/>
    </edge>
    <edge id=":1068824506_8" function="internal">
        <lane id=":1068824506_8_0" index="0" allow="pedestrian delivery bicycle" speed="3.65" length="4.67" shape="1574.84,2113.84 1576.22,2113.44 1576.84,2112.79 1576.70,2111.91 1575.80,2110.79"/>
    </edge>
    <edge id=":1068824509_0" function="internal">
        <lane id=":1068824509_0_0" index="0" allow="pedestrian delivery bicycle" speed="5.56" length="9.53" shape="1611.39,2012.81 1602.19,2010.32"/>
    </edge>
    <edge id=":1068824509_1" function="internal">
        <lane id=":1068824509_1_0" index="0" allow="pedestrian delivery bicycle" speed="5.56" length="10.26" shape="1611.39,2012.81 1608.60,2012.43 1606.37,2013.04 1604.71,2014.65 1603.61,2017.25"/>
    </edge>
    <edge id=":1068824509_2" function="internal">
        <lane id=":1068824509_2_0" index="0" allow="pedestrian delivery bicycle" speed="3.65" length="4.67" shape="1611.39,2012.81 1610.02,2013.25 1609.42,2013.91 1609.58,2014.79 1610.52,2015.88"/>
    </edge>
    <edge id=":1068824509_3" function="internal">
        <lane id=":1068824509_3_0" index="0" allow="pedestrian delivery bicycle" speed="5.02" length="5.02" shape="1606.71,2018.06 1607.24,2016.78 1608.06,2016.00 1609.15,2015.70 1610.52,2015.88"/>
    </edge>
    <edge id=":1068824509_4" function="internal">
        <lane id=":1068824509_4_0" index="0" allow="pedestrian delivery bicycle" speed="5.56" length="10.23" shape="1606.71,2018.06 1607.03,2015.26 1606.39,2013.04 1604.77,2011.39 1602.19,2010.32"/>
    </edge>
    <edge id=":1068824509_5" function="internal">
        <lane id=":1068824509_5_0" index="0" allow="pedestrian delivery bicycle" speed="3.65" length="4.67" shape="1606.71,2018.06 1606.24,2016.69 1605.57,2016.10 1604.69,2016.29 1603.61,2017.25"/>
    </edge>
    <edge id=":1068824509_6" function="internal">
        <lane id=":1068824509_6_0" index="0" allow="pedestrian delivery bicycle" speed="5.05" length="5.04" shape="1601.40,2013.42 1602.67,2013.95 1603.46,2014.76 1603.77,2015.86 1603.61,2017.25"/>
    </edge>
    <edge id=":1068824509_7" function="internal">
        <lane id=":1068824509_7_0" index="0" allow="pedestrian delivery bicycle" speed="5.56" length="9.44" shape="1601.40,2013.42 1610.52,2015.88"/>
    </edge>
    <edge id=":1068824509_8" function="internal">
        <lane id=":1068824509_8_0" index="0" allow="pedestrian delivery bicycle" speed="3.65" length="4.67" shape="1601.40,2013.42 1602.76,2012.94 1603.35,2012.27 1603.16,2011.39 1602.19,2010.32"/>
    </edge>
    <edge id=":1068825813_0" function="internal">
        <lane id=":1068825813_0_0" index="0" disallow="tram rail_urban rail rail_electric rail_fast ship" speed="13.89" length="5.01" shape="1477.76,1893.81 1473.32,1891.51"/>
    </edge>
    <edge id=":1068825813_1" function="internal">
        <lane id=":1068825813_1_0" index="0" disallow="tram rail_urban rail rail_electric rail_fast ship" speed="13.89" length="5.02" shape="1471.84,1894.34 1476.29,1896.65"/>
    </edge>
    <edge id=":1363483916_0" function="internal">
        <lane id=":1363483916_0_0" index="0" allow="pedestrian delivery bicycle" speed="8.33" length="11.36" shape="2227.08,2308.85 2223.94,2308.33 2221.46,2308.14 2218.95,2308.16 2215.77,2308.25"/>
    </edge>
    <edge id=":1363483916_1" function="internal">
        <lane id=":1363483916_1_0" index="0" allow="pedestrian delivery bicycle" speed="6.95" length="2.75" shape="2227.08,2308.85 2224.70,2308.88 2224.36,2309.04"/>
    </edge>
    <edge id=":1363483916_2" function="internal">
        <lane id=":1363483916_2_0" index="0" allow="pedestrian delivery bicycle" speed="3.65" length="1.44" shape="2227.08,2308.85 2225.74,2309.40"/>
    </edge>
    <edge id=":1363483916_9" function="internal">
        <lane id=":1363483916_9_0" index="0" allow="pedestrian delivery bicycle" speed="6.95" length="8.99" shape="2224.36,2309.04 2222.40,2309.94 2220.16,2312.02 2218.00,2315.12"/>
    </edge>
    <edge id=":1363483916_10" function="internal">
        <lane id=":1363483916_10_0" index="0" allow="pedestrian delivery bicycle" speed="3.65" length="3.23" shape="2225.74,2309.40 2225.19,2310.11 2225.43,2310.97 2226.45,2311.99"/>
    </edge>
    <edge id=":1363483916_3" function="internal">
        <lane id=":1363483916_3_0" index="0" allow="pedestrian delivery bicycle" speed="6.95" length="7.81" shape="2220.75,2316.74 2222.27,2314.47 2223.73,2312.92 2225.12,2312.09 2226.45,2311.99"/>
    </edge>
    <edge id=":1363483916_4" function="internal">
        <lane id=":1363483916_4_0" index="0" allow="pedestrian delivery bicycle" speed="6.69" length="13.67" shape="2220.75,2316.74 2222.37,2312.94 2222.08,2310.26 2219.88,2308.69 2215.77,2308.25"/>
    </edge>
    <edge id=":1363483916_5" function="internal">
        <lane id=":1363483916_5_0" index="0" allow="pedestrian delivery bicycle" speed="3.65" length="4.67" shape="2220.75,2316.74 2220.67,2315.30 2220.19,2314.55 2219.30,2314.49 2218.00,2315.12"/>
    </edge>
    <edge id=":1363483916_6" function="internal">
        <lane id=":1363483916_6_0" index="0" allow="pedestrian delivery bicycle" speed="4.67" length="5.91" shape="2215.84,2311.45 2217.62,2311.64 2218.57,2312.32 2218.70,2313.48 2218.00,2315.12"/>
    </edge>
    <edge id=":1363483916_7" function="internal">
        <lane id=":1363483916_7_0" index="0" allow="pedestrian delivery bicycle" speed="8.33" length="10.66" shape="2215.84,2311.45 2218.92,2311.35 2221.18,2311.31 2223.42,2311.48 2226.45,2311.99"/>
    </edge>
    <edge id=":1363483916_8" function="internal">
        <lane id=":1363483916_8_0" index="0" allow="pedestrian delivery bicycle" speed="3.65" length="1.44" shape="2215.84,2311.45 2217.02,2310.62"/>
    </edge>
    <edge id=":1363483916_11" function="internal">
        <lane id=":1363483916_11_0" index="0" allow="pedestrian delivery bicycle" speed="3.65" length="3.23" shape="2217.02,2310.62 2217.40,2309.81 2216.99,2309.02 2215.77,2308.25"/>
    </edge>
    <edge id=":1363483920_0" function="internal">
        <lane id=":1363483920_0_0" index="0" allow="pedestrian delivery bicycle" speed="5.90" length="7.34" shape="2217.28,2371.94 2217.95,2370.17 2219.10,2369.05 2220.75,2368.60 2222.88,2368.80"/>
    </edge>
    <edge id=":1363483920_1" function="internal">
        <lane id=":1363483920_1_0" index="0" allow="pedestrian delivery bicycle" speed="7.38" length="6.36" shape="2217.28,2371.94 2217.65,2370.66 2218.20,2368.75 2218.59,2366.89 2218.45,2365.76"/>
    </edge>
    <edge id=":1363483920_2" function="internal">
        <lane id=":1363483920_2_0" index="0" allow="pedestrian delivery bicycle" speed="8.33" length="7.10" shape="2216.13,2367.96 2217.71,2369.03 2219.14,2369.03 2220.75,2368.70 2222.88,2368.80"/>
    </edge>
    <edge id=":1363483920_3" function="internal">
        <lane id=":1363483920_3_0" index="0" allow="pedestrian delivery bicycle" speed="3.65" length="4.67" shape="2216.13,2367.96 2217.54,2368.28 2218.40,2368.02 2218.70,2367.18 2218.45,2365.76"/>
    </edge>
    <edge id=":1363483928_0" function="internal">
        <lane id=":1363483928_0_0" index="0" allow="pedestrian delivery bicycle" speed="8.33" length="5.77" shape="2367.95,2398.34 2367.77,2396.64 2367.70,2395.47 2367.68,2394.30 2367.67,2392.59"/>
    </edge>
    <edge id=":1363483928_1" function="internal">
        <lane id=":1363483928_1_0" index="0" allow="pedestrian delivery bicycle" speed="3.65" length="4.67" shape="2367.95,2398.34 2367.02,2397.24 2366.18,2396.94 2365.43,2397.43 2364.78,2398.71"/>
    </edge>
    <edge id=":1363483928_2" function="internal">
        <lane id=":1363483928_2_0" index="0" allow="pedestrian delivery bicycle" speed="5.77" length="5.29" shape="2361.12,2395.43 2362.60,2395.87 2363.71,2396.56 2364.43,2397.51 2364.78,2398.71"/>
    </edge>
    <edge id=":1363483928_3" function="internal">
        <lane id=":1363483928_3_0" index="0" allow="pedestrian delivery bicycle" speed="5.91" length="8.34" shape="2361.12,2395.43 2364.00,2395.71 2366.06,2395.33 2367.28,2394.29 2367.67,2392.59"/>
    </edge>
    <edge id=":1363483928_4" function="internal">
        <lane id=":1363483928_4_0" index="0" allow="pedestrian delivery bicycle" speed="8.33" length="6.11" shape="2364.47,2392.62 2364.48,2394.43 2364.50,2395.67 2364.58,2396.91 2364.78,2398.71"/>
    </edge>
    <edge id=":1363483928_5" function="internal">
        <lane id=":1363483928_5_0" index="0" allow="pedestrian delivery bicycle" speed="3.65" length="4.67" shape="2364.47,2392.62 2365.29,2393.81 2366.09,2394.20 2366.89,2393.79 2367.67,2392.59"/>
    </edge>
    <edge id=":1363483929_0" function="internal">
        <lane id=":1363483929_0_0" index="0" allow="pedestrian delivery bicycle" speed="5.07" length="5.03" shape="2214.73,2400.49 2213.42,2400.02 2212.58,2399.25 2212.19,2398.18 2212.27,2396.82"/>
    </edge>
    <edge id=":1363483929_1" function="internal">
        <lane id=":1363483929_1_0" index="0" allow="pedestrian delivery bicycle" speed="3.65" length="4.67" shape="2214.73,2400.49 2213.39,2401.02 2212.83,2401.72 2213.06,2402.59 2214.07,2403.62"/>
    </edge>
    <edge id=":1363483929_2" function="internal">
        <lane id=":1363483929_2_0" index="0" allow="pedestrian delivery bicycle" speed="5.03" length="5.01" shape="2210.41,2406.03 2210.87,2404.73 2211.63,2403.90 2212.70,2403.53 2214.07,2403.62"/>
    </edge>
    <edge id=":1363483929_3" function="internal">
        <lane id=":1363483929_3_0" index="0" allow="pedestrian delivery bicycle" speed="8.33" length="9.40" shape="2210.41,2406.03 2212.27,2396.82"/>
    </edge>
    <edge id=":1363483933_0" function="internal">
        <lane id=":1363483933_0_0" index="0" allow="pedestrian delivery bicycle" speed="5.06" length="5.03" shape="2209.33,2427.18 2208.03,2426.71 2207.19,2425.94 2206.80,2424.88 2206.88,2423.51"/>
    </edge>
    <edge id=":1363483933_1" function="internal">
        <lane id=":1363483933_1_0" index="0" allow="pedestrian delivery bicycle" speed="3.65" length="4.67" shape="2209.33,2427.18 2207.99,2427.72 2207.44,2428.42 2207.67,2429.29 2208.68,2430.31"/>
    </edge>
    <edge id=":1363483933_2" function="internal">
        <lane id=":1363483933_2_0" index="0" allow="pedestrian delivery bicycle" speed="5.03" length="5.01" shape="2205.02,2432.73 2205.48,2431.43 2206.24,2430.60 2207.31,2430.23 2208.68,2430.31"/>
    </edge>
    <edge id=":1363483933_3" function="internal">
        <lane id=":1363483933_3_0" index="0" allow="pedestrian delivery bicycle" speed="8.33" length="9.40" shape="2205.02,2432.73 2206.88,2423.51"/>
    </edge>
    <edge id=":1363483934_0" function="internal">
        <lane id=":1363483934_0_0" index="0" allow="pedestrian delivery bicycle" speed="8.33" length="10.05" shape="2334.21,2425.49 2324.35,2423.55"/>
    </edge>
    <edge id=":1363483934_1" function="internal">
        <lane id=":1363483934_1_0" index="0" allow="pedestrian delivery bicycle" speed="8.33" length="10.95" shape="2334.21,2425.49 2332.05,2425.54 2329.82,2426.44 2327.51,2428.16 2325.12,2430.72"/>
    </edge>
    <edge id=":1363483934_2" function="internal">
        <lane id=":1363483934_2_0" index="0" allow="pedestrian delivery bicycle" speed="3.65" length="4.67" shape="2334.21,2425.49 2332.89,2426.07 2332.36,2426.80 2332.62,2427.65 2333.67,2428.64"/>
    </edge>
    <edge id=":1363483934_3" function="internal">
        <lane id=":1363483934_3_0" index="0" allow="pedestrian delivery bicycle" speed="7.54" length="7.59" shape="2327.61,2432.74 2329.36,2430.80 2330.96,2429.46 2332.39,2428.75 2333.67,2428.64"/>
    </edge>
    <edge id=":1363483934_4" function="internal">
        <lane id=":1363483934_4_0" index="0" allow="pedestrian delivery bicycle" speed="6.67" length="13.00" shape="2327.61,2432.74 2329.62,2429.44 2329.75,2426.81 2327.99,2424.84 2324.35,2423.55"/>
    </edge>
    <edge id=":1363483934_5" function="internal">
        <lane id=":1363483934_5_0" index="0" allow="pedestrian delivery bicycle" speed="3.65" length="4.67" shape="2327.61,2432.74 2327.74,2431.31 2327.37,2430.49 2326.50,2430.30 2325.12,2430.72"/>
    </edge>
    <edge id=":1363483934_6" function="internal">
        <lane id=":1363483934_6_0" index="0" allow="pedestrian delivery bicycle" speed="4.69" length="5.72" shape="2323.69,2426.68 2325.29,2427.25 2326.07,2428.11 2326.01,2429.27 2325.12,2430.72"/>
    </edge>
    <edge id=":1363483934_7" function="internal">
        <lane id=":1363483934_7_0" index="0" allow="pedestrian delivery bicycle" speed="8.33" length="10.17" shape="2323.69,2426.68 2333.67,2428.64"/>
    </edge>
    <edge id=":1363483934_8" function="internal">
        <lane id=":1363483934_8_0" index="0" allow="pedestrian delivery bicycle" speed="3.65" length="4.67" shape="2323.69,2426.68 2325.03,2426.14 2325.58,2425.44 2325.36,2424.58 2324.35,2423.55"/>
    </edge>
    <edge id=":1363483938_0" function="internal">
        <lane id=":1363483938_0_0" index="0" allow="pedestrian delivery bicycle" speed="5.04" length="5.00" shape="2204.60,2450.50 2203.31,2450.04 2202.47,2449.28 2202.09,2448.21 2202.17,2446.84"/>
    </edge>
    <edge id=":1363483938_1" function="internal">
        <lane id=":1363483938_1_0" index="0" allow="pedestrian delivery bicycle" speed="3.65" length="4.67" shape="2204.60,2450.50 2203.26,2451.04 2202.71,2451.75 2202.95,2452.61 2203.96,2453.64"/>
    </edge>
    <edge id=":1363483938_2" function="internal">
        <lane id=":1363483938_2_0" index="0" allow="pedestrian delivery bicycle" speed="5.04" length="5.00" shape="2200.31,2456.06 2200.77,2454.77 2201.53,2453.93 2202.59,2453.56 2203.96,2453.64"/>
    </edge>
    <edge id=":1363483938_3" function="internal">
        <lane id=":1363483938_3_0" index="0" allow="pedestrian delivery bicycle" speed="8.33" length="9.40" shape="2200.31,2456.06 2202.17,2446.84"/>
    </edge>
    <edge id=":1363483939_0" function="internal">
        <lane id=":1363483939_0_0" index="0" allow="pedestrian delivery bicycle" speed="6.81" length="6.35" shape="2312.35,2446.43 2311.39,2447.22 2310.08,2447.64 2308.40,2447.72 2306.37,2447.43"/>
    </edge>
    <edge id=":1363483939_1" function="internal">
        <lane id=":1363483939_1_0" index="0" allow="pedestrian delivery bicycle" speed="8.33" length="9.33" shape="2312.35,2446.43 2310.66,2448.61 2309.65,2450.21 2308.82,2451.93 2307.70,2454.46"/>
    </edge>
    <edge id=":1363483939_2" function="internal">
        <lane id=":1363483939_2_0" index="0" allow="pedestrian delivery bicycle" speed="3.65" length="4.67" shape="2312.35,2446.43 2312.22,2447.87 2312.59,2448.69 2313.46,2448.88 2314.84,2448.45"/>
    </edge>
    <edge id=":1363483939_3" function="internal">
        <lane id=":1363483939_3_0" index="0" allow="pedestrian delivery bicycle" speed="8.33" length="8.50" shape="2310.62,2455.78 2311.64,2453.47 2312.38,2451.90 2313.30,2450.44 2314.84,2448.45"/>
    </edge>
    <edge id=":1363483939_4" function="internal">
        <lane id=":1363483939_4_0" index="0" allow="pedestrian delivery bicycle" speed="6.72" length="11.32" shape="2310.62,2455.78 2311.51,2452.70 2311.10,2450.28 2309.39,2448.53 2306.37,2447.43"/>
    </edge>
    <edge id=":1363483939_5" function="internal">
        <lane id=":1363483939_5_0" index="0" allow="pedestrian delivery bicycle" speed="3.65" length="4.67" shape="2310.62,2455.78 2310.38,2454.36 2309.82,2453.66 2308.93,2453.70 2307.70,2454.46"/>
    </edge>
    <edge id=":1363483939_6" function="internal">
        <lane id=":1363483939_6_0" index="0" allow="pedestrian delivery bicycle" speed="4.84" length="5.28" shape="2305.72,2450.57 2307.13,2451.08 2307.93,2451.90 2308.12,2453.03 2307.70,2454.46"/>
    </edge>
    <edge id=":1363483939_7" function="internal">
        <lane id=":1363483939_7_0" index="0" allow="pedestrian delivery bicycle" speed="8.33" length="9.84" shape="2305.72,2450.57 2308.66,2450.93 2311.16,2450.70 2313.22,2449.87 2314.84,2448.45"/>
    </edge>
    <edge id=":1363483939_8" function="internal">
        <lane id=":1363483939_8_0" index="0" allow="pedestrian delivery bicycle" speed="3.65" length="4.67" shape="2305.72,2450.57 2307.06,2450.03 2307.61,2449.33 2307.38,2448.46 2306.37,2447.43"/>
    </edge>
    <edge id=":1363483944_0" function="internal">
        <lane id=":1363483944_0_0" index="0" allow="pedestrian delivery bicycle" speed="5.67" length="5.48" shape="2301.69,2467.77 2300.97,2468.83 2299.95,2469.49 2298.62,2469.73 2296.99,2469.57"/>
    </edge>
    <edge id=":1363483944_1" function="internal">
        <lane id=":1363483944_1_0" index="0" allow="pedestrian delivery bicycle" speed="8.33" length="9.21" shape="2301.69,2467.77 2300.59,2470.27 2299.91,2472.02 2299.36,2473.81 2298.64,2476.44"/>
    </edge>
    <edge id=":1363483944_2" function="internal">
        <lane id=":1363483944_2_0" index="0" allow="pedestrian delivery bicycle" speed="3.65" length="4.67" shape="2301.69,2467.77 2301.93,2469.19 2302.49,2469.89 2303.39,2469.85 2304.61,2469.09"/>
    </edge>
    <edge id=":1363483944_3" function="internal">
        <lane id=":1363483944_3_0" index="0" allow="pedestrian delivery bicycle" speed="8.33" length="8.71" shape="2301.73,2477.29 2302.41,2474.80 2302.93,2473.10 2303.57,2471.45 2304.61,2469.09"/>
    </edge>
    <edge id=":1363483944_4" function="internal">
        <lane id=":1363483944_4_0" index="0" allow="pedestrian delivery bicycle" speed="6.81" length="10.48" shape="2301.73,2477.29 2302.09,2474.41 2301.42,2472.17 2299.72,2470.55 2296.99,2469.57"/>
    </edge>
    <edge id=":1363483944_5" function="internal">
        <lane id=":1363483944_5_0" index="0" allow="pedestrian delivery bicycle" speed="3.65" length="4.67" shape="2301.73,2477.29 2301.27,2475.92 2300.61,2475.32 2299.73,2475.50 2298.64,2476.44"/>
    </edge>
    <edge id=":1363483944_6" function="internal">
        <lane id=":1363483944_6_0" index="0" allow="pedestrian delivery bicycle" speed="4.97" length="5.08" shape="2296.35,2472.71 2297.67,2473.18 2298.49,2473.96 2298.81,2475.05 2298.64,2476.44"/>
    </edge>
    <edge id=":1363483944_7" function="internal">
        <lane id=":1363483944_7_0" index="0" allow="pedestrian delivery bicycle" speed="7.36" length="9.85" shape="2296.35,2472.71 2299.14,2472.95 2301.44,2472.43 2303.27,2471.14 2304.61,2469.09"/>
    </edge>
    <edge id=":1363483944_8" function="internal">
        <lane id=":1363483944_8_0" index="0" allow="pedestrian delivery bicycle" speed="3.65" length="4.67" shape="2296.35,2472.71 2297.68,2472.16 2298.24,2471.46 2298.01,2470.60 2296.99,2469.57"/>
    </edge>
    <edge id=":1363483945_0" function="internal">
        <lane id=":1363483945_0_0" index="0" allow="pedestrian delivery bicycle" speed="5.03" length="5.01" shape="2199.93,2473.65 2198.63,2473.20 2197.79,2472.44 2197.41,2471.38 2197.49,2470.00"/>
    </edge>
    <edge id=":1363483945_1" function="internal">
        <lane id=":1363483945_1_0" index="0" allow="pedestrian delivery bicycle" speed="3.65" length="4.67" shape="2199.93,2473.65 2198.60,2474.20 2198.05,2474.91 2198.29,2475.77 2199.31,2476.79"/>
    </edge>
    <edge id=":1363483945_2" function="internal">
        <lane id=":1363483945_2_0" index="0" allow="pedestrian delivery bicycle" speed="5.06" length="5.02" shape="2195.63,2479.22 2196.09,2477.93 2196.86,2477.10 2197.93,2476.72 2199.31,2476.79"/>
    </edge>
    <edge id=":1363483945_3" function="internal">
        <lane id=":1363483945_3_0" index="0" allow="pedestrian delivery bicycle" speed="8.33" length="9.40" shape="2195.63,2479.22 2197.49,2470.00"/>
    </edge>
    <edge id=":1363483953_0" function="internal">
        <lane id=":1363483953_0_0" index="0" allow="pedestrian delivery bicycle" speed="5.03" length="5.01" shape="2195.61,2495.10 2194.31,2494.65 2193.47,2493.89 2193.09,2492.82 2193.17,2491.45"/>
    </edge>
    <edge id=":1363483953_1" function="internal">
        <lane id=":1363483953_1_0" index="0" allow="pedestrian delivery bicycle" speed="3.65" length="4.67" shape="2195.61,2495.10 2194.28,2495.65 2193.73,2496.36 2193.97,2497.22 2194.99,2498.24"/>
    </edge>
    <edge id=":1363483953_2" function="internal">
        <lane id=":1363483953_2_0" index="0" allow="pedestrian delivery bicycle" speed="5.10" length="5.05" shape="2191.24,2500.63 2191.72,2499.36 2192.51,2498.53 2193.60,2498.16 2194.99,2498.24"/>
    </edge>
    <edge id=":1363483953_3" function="internal">
        <lane id=":1363483953_3_0" index="0" allow="pedestrian delivery bicycle" speed="8.33" length="9.37" shape="2191.24,2500.63 2193.17,2491.45"/>
    </edge>
    <edge id=":1363483954_0" function="internal">
        <lane id=":1363483954_0_0" index="0" allow="pedestrian delivery bicycle" speed="5.31" length="5.34" shape="2295.12,2489.31 2294.56,2490.53 2293.67,2491.30 2292.45,2491.63 2290.90,2491.52"/>
    </edge>
    <edge id=":1363483954_1" function="internal">
        <lane id=":1363483954_1_0" index="0" allow="pedestrian delivery bicycle" speed="8.33" length="9.44" shape="2295.12,2489.31 2292.57,2498.40"/>
    </edge>
    <edge id=":1363483954_2" function="internal">
        <lane id=":1363483954_2_0" index="0" allow="pedestrian delivery bicycle" speed="3.65" length="4.67" shape="2295.12,2489.31 2295.57,2490.68 2296.24,2491.28 2297.12,2491.10 2298.20,2490.16"/>
    </edge>
    <edge id=":1363483954_3" function="internal">